electric-grid/physical/synthetic/illini200/illinois200.raw
 0,    100.00, 33, 0, 0, 60.00       / March 15, 2017 14:47:13; Simulator Version 20 Beta; BuildDate 2017_3_13


    1,'CREVE COEU~1', 115.0000,1,   1,   1,   1,0.99872530, -36.484845, 1.10000, 0.90000, 1.10000, 0.90000
    2,'CREVE COEU~2', 115.0000,1,   1,   1,   1,0.99854708, -36.504646, 1.10000, 0.90000, 1.10000, 0.90000
    3,'ILLIOPOLIS 0', 115.0000,1,   1,   1,   1,1.01033151, -38.186133, 1.10000, 0.90000, 1.10000, 0.90000
    4,'ILLIOPOLIS 1', 115.0000,1,   1,   1,   1,1.01029086, -38.190917, 1.10000, 0.90000, 1.10000, 0.90000
    5,'PAXTON 2 0  ', 115.0000,1,   1,   1,   1,1.02317464, -38.814350, 1.10000, 0.90000, 1.10000, 0.90000
    6,'PAXTON 2 1  ', 115.0000,1,   1,   1,   1,1.02297354, -38.835837, 1.10000, 0.90000, 1.10000, 0.90000
    7,'PEORIA 9 0  ', 115.0000,1,   1,   1,   1,0.98951632, -37.640746, 1.10000, 0.90000, 1.10000, 0.90000
    8,'PEORIA 9 1  ', 115.0000,1,   1,   1,   1,0.98896664, -37.702747, 1.10000, 0.90000, 1.10000, 0.90000
    9,'PEORIA 8 0  ', 115.0000,1,   1,   1,   1,0.99393022, -37.023795, 1.10000, 0.90000, 1.10000, 0.90000
   10,'PEORIA 8 1  ', 115.0000,1,   1,   1,   1,0.99283361, -37.163435, 1.10000, 0.90000, 1.10000, 0.90000
   11,'LOVINGTON 0 ', 115.0000,1,   1,   1,   1,1.03490686, -35.627278, 1.10000, 0.90000, 1.10000, 0.90000
   12,'LOVINGTON 1 ', 115.0000,1,   1,   1,   1,1.03489959, -35.628155, 1.10000, 0.90000, 1.10000, 0.90000
   13,'LOVINGTON 2 ', 115.0000,1,   1,   1,   1,1.03484249, -35.634699, 1.10000, 0.90000, 1.10000, 0.90000
   14,'DECATUR 3 0 ', 230.0000,1,   1,   1,   1,1.03311944, -34.381984, 1.10000, 0.90000, 1.10000, 0.90000
   15,'DECATUR 3 1 ', 115.0000,1,   1,   1,   1,1.03558910, -35.497712, 1.10000, 0.90000, 1.10000, 0.90000
   16,'DECATUR 3 2 ', 115.0000,1,   1,   1,   1,1.03457165, -35.614379, 1.10000, 0.90000, 1.10000, 0.90000
   17,'MASON CITY 0', 115.0000,1,   1,   1,   1,1.00113392, -39.161689, 1.10000, 0.90000, 1.10000, 0.90000
   18,'MASON CITY 1', 115.0000,1,   1,   1,   1,1.00111532, -39.164165, 1.10000, 0.90000, 1.10000, 0.90000
   19,'MASON CITY 2', 115.0000,1,   1,   1,   1,1.00111675, -39.163755, 1.10000, 0.90000, 1.10000, 0.90000
   20,'MASON CITY 3', 115.0000,1,   1,   1,   1,1.00110543, -39.164967, 1.10000, 0.90000, 1.10000, 0.90000
   21,'MASON CITY 4', 115.0000,1,   1,   1,   1,1.00100541, -39.177566, 1.10000, 0.90000, 1.10000, 0.90000
   22,'BETHANY 0   ', 115.0000,1,   1,   1,   1,1.03446007, -35.650736, 1.10000, 0.90000, 1.10000, 0.90000
   23,'BETHANY 1   ', 115.0000,1,   1,   1,   1,1.03442657, -35.654424, 1.10000, 0.90000, 1.10000, 0.90000
   24,'BETHANY 2   ', 115.0000,1,   1,   1,   1,1.03440213, -35.656641, 1.10000, 0.90000, 1.10000, 0.90000
   25,'RANKIN 0    ', 115.0000,1,   1,   1,   1,1.02570987, -39.097348, 1.10000, 0.90000, 1.10000, 0.90000
   26,'RANKIN 1    ', 115.0000,1,   1,   1,   1,1.02567911, -39.100705, 1.10000, 0.90000, 1.10000, 0.90000
   27,'WINDSOR 0   ', 115.0000,1,   1,   1,   1,1.03505385, -35.782449, 1.10000, 0.90000, 1.10000, 0.90000
   28,'WINDSOR 1   ', 115.0000,1,   1,   1,   1,1.03499174, -35.790041, 1.10000, 0.90000, 1.10000, 0.90000
   29,'PEKIN 2 0   ', 115.0000,1,   1,   1,   1,0.99885613, -36.226213, 1.10000, 0.90000, 1.10000, 0.90000
   30,'PEKIN 2 1   ', 115.0000,1,   1,   1,   1,0.99745941, -36.374026, 1.10000, 0.90000, 1.10000, 0.90000
   31,'HEYWORTH 0  ', 115.0000,1,   1,   1,   1,0.99938142, -39.562361, 1.10000, 0.90000, 1.10000, 0.90000
   32,'HEYWORTH 1  ', 115.0000,1,   1,   1,   1,0.99936897, -39.563847, 1.10000, 0.90000, 1.10000, 0.90000
   33,'HEYWORTH 2  ', 115.0000,1,   1,   1,   1,0.99924332, -39.580004, 1.10000, 0.90000, 1.10000, 0.90000
   34,'DECATUR 2 0 ', 115.0000,1,   1,   1,   1,1.01792610, -36.929679, 1.10000, 0.90000, 1.10000, 0.90000
   35,'DECATUR 2 1 ', 115.0000,1,   1,   1,   1,1.01739502, -36.994265, 1.10000, 0.90000, 1.10000, 0.90000
   36,'LINCOLN 0   ', 115.0000,1,   1,   1,   1,1.00593150, -39.693344, 1.10000, 0.90000, 1.10000, 0.90000
   37,'LINCOLN 1   ', 115.0000,1,   1,   1,   1,1.00585854, -39.702124, 1.10000, 0.90000, 1.10000, 0.90000
   38,'LINCOLN 2   ', 115.0000,1,   1,   1,   1,1.00525236, -39.770112, 1.10000, 0.90000, 1.10000, 0.90000
   39,'SHERMAN 0   ', 115.0000,1,   1,   1,   1,0.99886823, -39.913488, 1.10000, 0.90000, 1.10000, 0.90000
   40,'SHERMAN 1   ', 115.0000,1,   1,   1,   1,0.99882269, -39.919054, 1.10000, 0.90000, 1.10000, 0.90000
   41,'URBANA 2 0  ', 115.0000,1,   1,   1,   1,1.01503754, -41.826757, 1.10000, 0.90000, 1.10000, 0.90000
   42,'SPRINGFIE~18', 115.0000,1,   1,   1,   1,1.00705826, -38.646358, 1.10000, 0.90000, 1.10000, 0.90000
   43,'CARLOCK 0   ', 115.0000,1,   1,   1,   1,0.99437910, -38.626608, 1.10000, 0.90000, 1.10000, 0.90000
   44,'PLEASANT P~1', 115.0000,1,   1,   1,   1,1.00490391, -38.490046, 1.10000, 0.90000, 1.10000, 0.90000
   45,'LE ROY 0    ', 230.0000,1,   1,   1,   1,1.02775586, -33.752015, 1.10000, 0.90000, 1.10000, 0.90000
   46,'LE ROY 1    ', 115.0000,1,   1,   1,   1,1.02520883, -34.633270, 1.10000, 0.90000, 1.10000, 0.90000
   47,'DECATUR 1 0 ', 115.0000,1,   1,   1,   1,1.03164172, -35.017318, 1.10000, 0.90000, 1.10000, 0.90000
   48,'RANTOUL 2 0 ', 115.0000,1,   1,   1,   1,1.02046931, -39.106064, 1.10000, 0.90000, 1.10000, 0.90000
   49,'RANTOUL 2 1 ',  13.8000,2,   1,   1,   1,1.03228080, -37.826267, 1.10000, 0.90000, 1.10000, 0.90000
   50,'RANTOUL 2 2 ',  13.8000,2,   1,   1,   1,1.02956069, -38.132550, 1.10000, 0.90000, 1.10000, 0.90000
   51,'RANTOUL 2 3 ',  13.8000,2,   1,   1,   1,1.03382540, -37.629606, 1.10000, 0.90000, 1.10000, 0.90000
   52,'RANTOUL 2 4 ',  13.8000,2,   1,   1,   1,1.02908325, -38.192290, 1.10000, 0.90000, 1.10000, 0.90000
   53,'RANTOUL 2 5 ',  13.8000,2,   1,   1,   1,1.03999996, -36.320835, 1.10000, 0.90000, 1.10000, 0.90000
   54,'MACON 0     ', 115.0000,1,   1,   1,   1,1.02790928, -35.518227, 1.10000, 0.90000, 1.10000, 0.90000
   55,'ELLSWORTH ~5', 230.0000,1,   1,   1,   1,1.02471709, -34.507308, 1.10000, 0.90000, 1.10000, 0.90000
   56,'ELLSWORTH ~6', 115.0000,1,   1,   1,   1,1.02318084, -34.882555, 1.10000, 0.90000, 1.10000, 0.90000
   57,'MOUNT PULA~1', 115.0000,1,   1,   1,   1,1.00555623, -38.958228, 1.10000, 0.90000, 1.10000, 0.90000
   58,'WAPELLA 0   ', 115.0000,1,   1,   1,   1,1.01304436, -39.471072, 1.10000, 0.90000, 1.10000, 0.90000
   59,'ROANOKE 0   ', 115.0000,1,   1,   1,   1,0.99169528, -39.285284, 1.10000, 0.90000, 1.10000, 0.90000
   60,'GREEN VALL~1', 115.0000,1,   1,   1,   1,1.01350987, -35.185033, 1.10000, 0.90000, 1.10000, 0.90000
   61,'BLOOMINGTO~3', 115.0000,1,   1,   1,   1,1.02135384, -35.141535, 1.10000, 0.90000, 1.10000, 0.90000
   62,'SPRINGFIE~17', 115.0000,1,   1,   1,   1,1.00132728, -39.623618, 1.10000, 0.90000, 1.10000, 0.90000
   63,'BEMENT 0    ', 115.0000,1,   1,   1,   1,1.02756906, -37.020582, 1.10000, 0.90000, 1.10000, 0.90000
   64,'PAXTON 1 0  ', 115.0000,1,   1,   1,   1,1.02911067, -38.087884, 1.10000, 0.90000, 1.10000, 0.90000
   65,'PAXTON 1 1  ',  13.8000,2,   1,   1,   1,1.03999996, -34.796047, 1.10000, 0.90000, 1.10000, 0.90000
   66,'MOUNT ZION 0', 115.0000,1,   1,   1,   1,1.03578436, -34.438374, 1.10000, 0.90000, 1.10000, 0.90000
   67,'MOUNT ZION 1',  13.8000,2,   1,   1,   1,1.03976297, -34.100754, 1.10000, 0.90000, 1.10000, 0.90000
   68,'MOUNT ZION 2',  13.8000,2,   1,   1,   1,1.03999996, -30.506917, 1.10000, 0.90000, 1.10000, 0.90000
   69,'MOUNT ZION 3',  13.8000,2,   1,   1,   1,1.03999996, -33.036191, 1.10000, 0.90000, 1.10000, 0.90000
   70,'MOUNT ZION 4',  13.8000,2,   1,   1,   1,1.03999996, -31.482347, 1.10000, 0.90000, 1.10000, 0.90000
   71,'MOUNT ZION 5',  13.8000,2,   1,   1,   1,1.03999996, -33.235701, 1.10000, 0.90000, 1.10000, 0.90000
   72,'MOUNT ZION 6',  13.8000,2,   1,   1,   1,1.03999996, -33.339533, 1.10000, 0.90000, 1.10000, 0.90000
   73,'MOUNT ZION 7',  13.8000,2,   1,   1,   1,1.03999996, -32.271524, 1.10000, 0.90000, 1.10000, 0.90000
   74,'RANTOUL 1 0 ', 115.0000,1,   1,   1,   1,1.00954080, -40.161027, 1.10000, 0.90000, 1.10000, 0.90000
   75,'BRIMFIELD 0 ', 115.0000,1,   1,   1,   1,1.01451111, -34.715113, 1.10000, 0.90000, 1.10000, 0.90000
   76,'BRIMFIELD 1 ',  13.8000,2,   1,   1,   1,1.03045201, -34.242272, 1.10000, 0.90000, 1.10000, 0.90000
   77,'BRIMFIELD 2 ',  13.8000,2,   1,   1,   1,1.03999960, -33.909676, 1.10000, 0.90000, 1.10000, 0.90000
   78,'BRIMFIELD 3 ',  13.8000,2,   1,   1,   1,1.01451111, -34.715113, 1.10000, 0.90000, 1.10000, 0.90000
   79,'BRIMFIELD 4 ',  13.8000,2,   1,   1,   1,1.01451111, -34.715113, 1.10000, 0.90000, 1.10000, 0.90000
   80,'WELDON 0    ', 115.0000,1,   1,   1,   1,1.01762342, -40.507786, 1.10000, 0.90000, 1.10000, 0.90000
   81,'GIBSON CIT~4', 230.0000,1,   1,   1,   1,1.01980841, -36.318889, 1.10000, 0.90000, 1.10000, 0.90000
   82,'GIBSON CIT~5', 115.0000,1,   1,   1,   1,1.01489568, -37.611243, 1.10000, 0.90000, 1.10000, 0.90000
   83,'MINIER 0    ', 115.0000,1,   1,   1,   1,1.01216304, -38.235648, 1.10000, 0.90000, 1.10000, 0.90000
   84,'HUDSON 0    ', 115.0000,1,   1,   1,   1,0.99743515, -38.576434, 1.10000, 0.90000, 1.10000, 0.90000
   85,'ATHENS 0    ', 115.0000,1,   1,   1,   1,0.99859297, -39.876465, 1.10000, 0.90000, 1.10000, 0.90000
   86,'PEORIA HEI~1', 115.0000,1,   1,   1,   1,0.99148303, -37.337219, 1.10000, 0.90000, 1.10000, 0.90000
   87,'SPRINGFIE~15', 230.0000,1,   1,   1,   1,1.02393126, -34.425782, 1.10000, 0.90000, 1.10000, 0.90000
   88,'SPRINGFIE~16', 115.0000,1,   1,   1,   1,1.01791584, -36.548315, 1.10000, 0.90000, 1.10000, 0.90000
   89,'CLINTON 3 0 ', 115.0000,1,   1,   1,   1,1.01533735, -38.730980, 1.10000, 0.90000, 1.10000, 0.90000
   90,'CLINTON 3 1 ',  13.8000,2,   1,   1,   1,1.04005265, -37.579431, 1.10000, 0.90000, 1.10000, 0.90000
   91,'CLINTON 3 2 ',  13.8000,2,   1,   1,   1,1.02815974, -38.350973, 1.10000, 0.90000, 1.10000, 0.90000
   92,'CLINTON 3 3 ',  13.8000,2,   1,   1,   1,1.01533735, -38.730980, 1.10000, 0.90000, 1.10000, 0.90000
   93,'TUSCOLA 2 0 ', 115.0000,1,   1,   1,   1,1.03387284, -36.464761, 1.10000, 0.90000, 1.10000, 0.90000
   94,'TUSCOLA 2 1 ',  13.8000,2,   1,   1,   1,1.03999996, -33.783748, 1.10000, 0.90000, 1.10000, 0.90000
   95,'KENNEY 0    ', 115.0000,1,   1,   1,   1,1.02322853, -39.226671, 1.10000, 0.90000, 1.10000, 0.90000
   96,'MANSFIELD 0 ', 115.0000,1,   1,   1,   1,1.02139533, -36.538534, 1.10000, 0.90000, 1.10000, 0.90000
   97,'MANITO 0    ', 115.0000,1,   1,   1,   1,1.00718927, -36.745567, 1.10000, 0.90000, 1.10000, 0.90000
   98,'DUNLAP 0    ', 230.0000,1,   1,   1,   1,1.01137304, -33.812715, 1.10000, 0.90000, 1.10000, 0.90000
   99,'DUNLAP 1    ', 115.0000,1,   1,   1,   1,1.00425768, -35.251723, 1.10000, 0.90000, 1.10000, 0.90000
  100,'CHAMPAIGN~10', 115.0000,1,   1,   1,   1,1.02479744, -41.244917, 1.10000, 0.90000, 1.10000, 0.90000
  101,'PEORIA 7 0  ', 115.0000,1,   1,   1,   1,0.99299759, -37.226846, 1.10000, 0.90000, 1.10000, 0.90000
  102,'ELLSWORTH ~1', 230.0000,1,   1,   1,   1,1.02642810, -34.196746, 1.10000, 0.90000, 1.10000, 0.90000
  103,'ELLSWORTH ~2', 115.0000,1,   1,   1,   1,1.02280271, -34.942196, 1.10000, 0.90000, 1.10000, 0.90000
  104,'ELLSWORTH ~3',  13.8000,2,   1,   1,   1,1.03999996, -31.764888, 1.10000, 0.90000, 1.10000, 0.90000
  105,'ELLSWORTH ~4',  13.8000,2,   1,   1,   1,1.03999996, -32.199516, 1.10000, 0.90000, 1.10000, 0.90000
  106,'TOWANDA 0   ', 115.0000,1,   1,   1,   1,1.01832056, -35.532765, 1.10000, 0.90000, 1.10000, 0.90000
  107,'BLOOMINGTO~2', 115.0000,1,   1,   1,   1,0.99377567, -39.401920, 1.10000, 0.90000, 1.10000, 0.90000
  108,'PRINCEVILL~1', 115.0000,1,   1,   1,   1,1.00944901, -35.497992, 1.10000, 0.90000, 1.10000, 0.90000
  109,'DELAVAN 0   ', 115.0000,1,   1,   1,   1,1.00533164, -38.276134, 1.10000, 0.90000, 1.10000, 0.90000
  110,'PEORIA 6 0  ', 115.0000,1,   1,   1,   1,0.99313605, -37.186934, 1.10000, 0.90000, 1.10000, 0.90000
  111,'SAVOY 0     ', 115.0000,1,   1,   1,   1,1.01028788, -42.063078, 1.10000, 0.90000, 1.10000, 0.90000
  112,'NORMAL 2 0  ', 230.0000,1,   1,   1,   1,1.02093303, -34.879399, 1.10000, 0.90000, 1.10000, 0.90000
  113,'NORMAL 2 1  ', 115.0000,1,   1,   1,   1,1.00086856, -38.390099, 1.10000, 0.90000, 1.10000, 0.90000
  114,'NORMAL 2 2  ',  13.8000,2,   1,   1,   1,1.02308416, -34.634124, 1.10000, 0.90000, 1.10000, 0.90000
  115,'NORMAL 2 3  ',  13.8000,2,   1,   1,   1,1.03999972, -32.355945, 1.10000, 0.90000, 1.10000, 0.90000
  116,'EAST PEORI~1', 230.0000,1,   1,   1,   1,1.01042843, -34.168370, 1.10000, 0.90000, 1.10000, 0.90000
  117,'EAST PEORI~2', 115.0000,1,   1,   1,   1,0.99920100, -36.643951, 1.10000, 0.90000, 1.10000, 0.90000
  118,'HANNA CITY 0', 115.0000,1,   1,   1,   1,1.00337112, -35.972147, 1.10000, 0.90000, 1.10000, 0.90000
  119,'METAMORA 0  ', 115.0000,1,   1,   1,   1,0.98959643, -38.886845, 1.10000, 0.90000, 1.10000, 0.90000
  120,'GREENVIEW 0 ', 115.0000,1,   1,   1,   1,0.99960530, -39.627559, 1.10000, 0.90000, 1.10000, 0.90000
  121,'CLINTON 2 0 ', 230.0000,1,   1,   1,   1,1.03248155, -32.772228, 1.10000, 0.90000, 1.10000, 0.90000
  122,'CLINTON 2 1 ', 115.0000,1,   1,   1,   1,1.02626789, -34.804697, 1.10000, 0.90000, 1.10000, 0.90000
  123,'BARTONVILL~1', 230.0000,1,   1,   1,   1,1.02218509, -32.299715, 1.10000, 0.90000, 1.10000, 0.90000
  124,'BARTONVILL~2', 115.0000,1,   1,   1,   1,1.00829268, -34.986018, 1.10000, 0.90000, 1.10000, 0.90000
  125,'BARTONVILL~3',  13.8000,2,   1,   1,   1,1.03999996, -25.000249, 1.10000, 0.90000, 1.10000, 0.90000
  126,'BARTONVILL~4',  13.8000,2,   1,   1,   1,1.03999996, -27.689867, 1.10000, 0.90000, 1.10000, 0.90000
  127,'BARTONVILL~5',  13.8000,2,   1,   1,   1,1.03999984, -30.108481, 1.10000, 0.90000, 1.10000, 0.90000
  128,'NORMAL 1 0  ', 230.0000,1,   1,   1,   1,1.02039325, -34.835259, 1.10000, 0.90000, 1.10000, 0.90000
  129,'NORMAL 1 1  ', 115.0000,1,   1,   1,   1,0.99942768, -38.546989, 1.10000, 0.90000, 1.10000, 0.90000
  130,'LEXINGTON 0 ', 115.0000,1,   1,   1,   1,1.01456523, -35.984117, 1.10000, 0.90000, 1.10000, 0.90000
  131,'PEORIA 5 0  ', 115.0000,1,   1,   1,   1,0.99406773, -37.058271, 1.10000, 0.90000, 1.10000, 0.90000
  132,'MORTON 0    ', 115.0000,1,   1,   1,   1,0.99008542, -38.563866, 1.10000, 0.90000, 1.10000, 0.90000
  133,'PEKIN 1 0   ', 230.0000,1,   1,   1,   1,1.02424347, -32.306364, 1.10000, 0.90000, 1.10000, 0.90000
  134,'PEKIN 1 1   ', 115.0000,1,   1,   1,   1,1.01955736, -33.769343, 1.10000, 0.90000, 1.10000, 0.90000
  135,'PEKIN 1 2   ',  13.8000,2,   1,   1,   1,1.03999996, -28.408423, 1.10000, 0.90000, 1.10000, 0.90000
  136,'PEKIN 1 3   ',  13.8000,2,   1,   1,   1,1.03999996, -29.416358, 1.10000, 0.90000, 1.10000, 0.90000
  137,'NIANTIC 0   ', 115.0000,1,   1,   1,   1,1.01376343, -37.627526, 1.10000, 0.90000, 1.10000, 0.90000
  138,'COLFAX 0    ', 115.0000,1,   1,   1,   1,1.00781333, -38.579746, 1.10000, 0.90000, 1.10000, 0.90000
  139,'EL PASO 0   ', 115.0000,1,   1,   1,   1,0.99467331, -39.376812, 1.10000, 0.90000, 1.10000, 0.90000
  140,'TREMONT 0   ', 115.0000,1,   1,   1,   1,1.00631559, -35.351430, 1.10000, 0.90000, 1.10000, 0.90000
  141,'PEORIA 4 0  ', 115.0000,1,   1,   1,   1,0.99307084, -37.183068, 1.10000, 0.90000, 1.10000, 0.90000
  142,'PEORIA 3 0  ', 115.0000,1,   1,   1,   1,0.99144751, -37.194044, 1.10000, 0.90000, 1.10000, 0.90000
  143,'CHAMPAIGN ~9', 115.0000,1,   1,   1,   1,1.00889695, -39.577924, 1.10000, 0.90000, 1.10000, 0.90000
  144,'EUREKA 0    ', 115.0000,1,   1,   1,   1,1.00377214, -36.964328, 1.10000, 0.90000, 1.10000, 0.90000
  145,'CHATHAM 0   ', 115.0000,1,   1,   1,   1,1.00937212, -37.694373, 1.10000, 0.90000, 1.10000, 0.90000
  146,'HOPEDALE 2 0', 115.0000,1,   1,   1,   1,1.01696360, -38.021102, 1.10000, 0.90000, 1.10000, 0.90000
  147,'HOPEDALE 2 1',  13.8000,2,   1,   1,   1,1.03815770, -35.728969, 1.10000, 0.90000, 1.10000, 0.90000
  148,'WASHINGTON 0', 115.0000,1,   1,   1,   1,0.98497492, -38.239005, 1.10000, 0.90000, 1.10000, 0.90000
  149,'SPRINGFIEL~8', 230.0000,1,   1,   1,   1,1.02763891, -33.725517, 1.10000, 0.90000, 1.10000, 0.90000
  150,'SPRINGFIEL~9', 115.0000,1,   1,   1,   1,1.02336621, -35.739006, 1.10000, 0.90000, 1.10000, 0.90000
  151,'SPRINGFIE~10',  13.8000,2,   1,   1,   1,1.03999996, -31.937978, 1.10000, 0.90000, 1.10000, 0.90000
  152,'SPRINGFIE~11',  13.8000,2,   1,   1,   1,1.03999996, -27.865328, 1.10000, 0.90000, 1.10000, 0.90000
  153,'SPRINGFIE~12',  13.8000,2,   1,   1,   1,1.03999996, -26.089596, 1.10000, 0.90000, 1.10000, 0.90000
  154,'SPRINGFIE~13',  13.8000,2,   1,   1,   1,1.03999996, -29.478109, 1.10000, 0.90000, 1.10000, 0.90000
  155,'SPRINGFIE~14',  13.8000,2,   1,   1,   1,1.03999996, -29.607316, 1.10000, 0.90000, 1.10000, 0.90000
  156,'PEORIA 2 0  ', 230.0000,1,   1,   1,   1,1.02232683, -32.427279, 1.10000, 0.90000, 1.10000, 0.90000
  157,'PEORIA 2 1  ', 115.0000,1,   1,   1,   1,1.01876771, -33.574017, 1.10000, 0.90000, 1.10000, 0.90000
  158,'MT ZION 0   ', 115.0000,1,   1,   1,   1,1.03468597, -35.213703, 1.10000, 0.90000, 1.10000, 0.90000
  159,'BUFFALO 0   ', 115.0000,1,   1,   1,   1,1.00197673, -39.516135, 1.10000, 0.90000, 1.10000, 0.90000
  160,'SPRINGFIEL~6', 115.0000,1,   1,   1,   1,1.00817430, -38.723816, 1.10000, 0.90000, 1.10000, 0.90000
  161,'SPRINGFIEL~7',  13.8000,2,   1,   1,   1,1.00817430, -38.723816, 1.10000, 0.90000, 1.10000, 0.90000
  162,'CONGERVILL~1', 115.0000,1,   1,   1,   1,1.00246322, -36.906507, 1.10000, 0.90000, 1.10000, 0.90000
  163,'CHAMPAIGN ~1', 115.0000,1,   1,   1,   1,1.01235366, -41.843201, 1.10000, 0.90000, 1.10000, 0.90000
  164,'CHAMPAIGN ~2',  13.8000,2,   1,   1,   1,1.01235366, -41.843201, 1.10000, 0.90000, 1.10000, 0.90000
  165,'CHAMPAIGN ~3',  13.8000,2,   1,   1,   1,1.01235366, -41.843201, 1.10000, 0.90000, 1.10000, 0.90000
  166,'CHAMPAIGN ~4',  13.8000,2,   1,   1,   1,1.01235366, -41.843201, 1.10000, 0.90000, 1.10000, 0.90000
  167,'CHAMPAIGN ~5',  13.8000,2,   1,   1,   1,1.02182269, -41.564013, 1.10000, 0.90000, 1.10000, 0.90000
  168,'CHAMPAIGN ~6',  13.8000,2,   1,   1,   1,1.01235366, -41.843201, 1.10000, 0.90000, 1.10000, 0.90000
  169,'CHAMPAIGN ~7',  13.8000,2,   1,   1,   1,1.01235366, -41.843201, 1.10000, 0.90000, 1.10000, 0.90000
  170,'CHAMPAIGN ~8',  13.8000,2,   1,   1,   1,1.03015292, -41.305337, 1.10000, 0.90000, 1.10000, 0.90000
  171,'FISHER 0    ', 115.0000,1,   1,   1,   1,1.00609410, -39.656252, 1.10000, 0.90000, 1.10000, 0.90000
  172,'HOMER 0     ', 115.0000,1,   1,   1,   1,1.01888692, -40.984004, 1.10000, 0.90000, 1.10000, 0.90000
  173,'TUSCOLA 1 0 ', 115.0000,1,   1,   1,   1,1.01190746, -41.570881, 1.10000, 0.90000, 1.10000, 0.90000
  174,'WHITE HEAT~1', 115.0000,1,   1,   1,   1,1.02044284, -40.065497, 1.10000, 0.90000, 1.10000, 0.90000
  175,'TOLONO 0    ', 115.0000,1,   1,   1,   1,1.00992918, -41.994472, 1.10000, 0.90000, 1.10000, 0.90000
  176,'SPRINGFIEL~5', 115.0000,1,   1,   1,   1,1.01311934, -37.170941, 1.10000, 0.90000, 1.10000, 0.90000
  177,'MACKINAW 0  ', 115.0000,1,   1,   1,   1,1.00730908, -39.250775, 1.10000, 0.90000, 1.10000, 0.90000
  178,'URBANA 1 0  ', 230.0000,1,   1,   1,   1,1.01956499, -37.089358, 1.10000, 0.90000, 1.10000, 0.90000
  179,'URBANA 1 1  ', 115.0000,1,   1,   1,   1,1.01838100, -40.152558, 1.10000, 0.90000, 1.10000, 0.90000
  180,'SAINT JOSE~1', 115.0000,1,   1,   1,   1,1.01847565, -40.985530, 1.10000, 0.90000, 1.10000, 0.90000
  181,'SPRINGFIEL~2', 115.0000,1,   1,   1,   1,1.01188409, -38.230888, 1.10000, 0.90000, 1.10000, 0.90000
  182,'SPRINGFIEL~3',  13.8000,2,   1,   1,   1,1.03598464, -35.430906, 1.10000, 0.90000, 1.10000, 0.90000
  183,'SPRINGFIEL~4',  13.8000,2,   1,   1,   1,1.02646828, -36.585830, 1.10000, 0.90000, 1.10000, 0.90000
  184,'MONTICELLO 0', 115.0000,1,   1,   1,   1,1.02233672, -39.874600, 1.10000, 0.90000, 1.10000, 0.90000
  185,'AUBURN 0    ', 115.0000,1,   1,   1,   1,1.01301062, -37.196025, 1.10000, 0.90000, 1.10000, 0.90000
  186,'HOPEDALE 1 0', 115.0000,1,   1,   1,   1,1.01081514, -37.232587, 1.10000, 0.90000, 1.10000, 0.90000
  187,'CLINTON 1 0 ', 230.0000,1,   1,   1,   1,1.03501010, -31.777404, 1.10000, 0.90000, 1.10000, 0.90000
  188,'CLINTON 1 1 ', 115.0000,1,   1,   1,   1,1.02609718, -35.972141, 1.10000, 0.90000, 1.10000, 0.90000
  189,'CLINTON 1 2 ',  13.8000,3,   1,   1,   1,1.03999996, -29.418352, 1.10000, 0.90000, 1.10000, 0.90000
  190,'MAHOMET 0   ', 115.0000,1,   1,   1,   1,1.00459027, -40.382718, 1.10000, 0.90000, 1.10000, 0.90000
  191,'VILLA GROV~1', 115.0000,1,   1,   1,   1,1.02447283, -38.931207, 1.10000, 0.90000, 1.10000, 0.90000
  192,'BLOOMINGTO~1', 115.0000,1,   1,   1,   1,0.99364632, -39.564117, 1.10000, 0.90000, 1.10000, 0.90000
  193,'PEORIA 1 0  ', 115.0000,1,   1,   1,   1,0.99490339, -36.917746, 1.10000, 0.90000, 1.10000, 0.90000
  194,'SPRINGFIEL~1', 115.0000,1,   1,   1,   1,1.02039146, -37.041793, 1.10000, 0.90000, 1.10000, 0.90000
  195,'GIBSON CIT~1', 115.0000,1,   1,   1,   1,1.01157796, -38.232513, 1.10000, 0.90000, 1.10000, 0.90000
  196,'GIBSON CIT~2',  13.8000,2,   1,   1,   1,1.01157796, -38.232513, 1.10000, 0.90000, 1.10000, 0.90000
  197,'GIBSON CIT~3',  13.8000,2,   1,   1,   1,1.01157796, -38.232513, 1.10000, 0.90000, 1.10000, 0.90000
  198,'MAPLETON 0  ', 115.0000,1,   1,   1,   1,1.00446868, -36.042434, 1.10000, 0.90000, 1.10000, 0.90000
  199,'GIFFORD 0   ', 115.0000,1,   1,   1,   1,1.02166831, -40.242030, 1.10000, 0.90000, 1.10000, 0.90000
  200,'PETERSBURG 0', 115.0000,1,   1,   1,   1,1.00371408, -37.924332, 1.10000, 0.90000, 1.10000, 0.90000
0 / END OF BUS DATA, BEGIN LOAD DATA
    2,'1 ',1,   1,   1,    10.952,     3.121,     0.000,     0.000,     0.000,     0.000,   1,1
    4,'1 ',1,   1,   1,     2.716,     0.774,     0.000,     0.000,     0.000,     0.000,   1,1
    6,'1 ',1,   1,   1,    12.502,     3.563,     0.000,     0.000,     0.000,     0.000,   1,1
    8,'1 ',1,   1,   1,    35.200,    10.032,     0.000,     0.000,     0.000,     0.000,   1,1
   10,'1 ',1,   1,   1,    63.294,    18.039,     0.000,     0.000,     0.000,     0.000,   1,1
   12,'1 ',1,   1,   1,     0.486,     0.139,     0.000,     0.000,     0.000,     0.000,   1,1
   13,'1 ',1,   1,   1,     4.044,     1.153,     0.000,     0.000,     0.000,     0.000,   1,1
   16,'1 ',1,   1,   1,    71.702,    20.435,     0.000,     0.000,     0.000,     0.000,   1,1
   18,'1 ',1,   1,   1,     1.144,     0.326,     0.000,     0.000,     0.000,     0.000,   1,1
   19,'1 ',1,   1,   1,     1.232,     0.351,     0.000,     0.000,     0.000,     0.000,   1,1
   20,'1 ',1,   1,   1,     1.814,     0.517,     0.000,     0.000,     0.000,     0.000,   1,1
   21,'1 ',1,   1,   1,     7.378,     2.103,     0.000,     0.000,     0.000,     0.000,   1,1
   23,'1 ',1,   1,   1,     2.260,     0.644,     0.000,     0.000,     0.000,     0.000,   1,1
   24,'1 ',1,   1,   1,     3.840,     1.094,     0.000,     0.000,     0.000,     0.000,   1,1
   26,'1 ',1,   1,   1,     2.128,     0.606,     0.000,     0.000,     0.000,     0.000,   1,1
   28,'1 ',1,   1,   1,     3.738,     1.065,     0.000,     0.000,     0.000,     0.000,   1,1
   30,'1 ',1,   1,   1,    87.620,    24.972,     0.000,     0.000,     0.000,     0.000,   1,1
   32,'1 ',1,   1,   1,     0.702,     0.200,     0.000,     0.000,     0.000,     0.000,   1,1
   33,'1 ',1,   1,   1,     8.816,     2.513,     0.000,     0.000,     0.000,     0.000,   1,1
   35,'1 ',1,   1,   1,    33.260,     9.479,     0.000,     0.000,     0.000,     0.000,   1,1
   37,'1 ',1,   1,   1,     4.890,     1.394,     0.000,     0.000,     0.000,     0.000,   1,1
   38,'1 ',1,   1,   1,    40.810,    11.631,     0.000,     0.000,     0.000,     0.000,   1,1
   39,'1 ',1,   1,   1,     1.642,     0.468,     0.000,     0.000,     0.000,     0.000,   1,1
   39,'2 ',1,   1,   1,    10.222,     2.913,     0.000,     0.000,     0.000,     0.000,   1,1
   40,'1 ',1,   1,   1,     3.276,     0.934,     0.000,     0.000,     0.000,     0.000,   1,1
   41,'1 ',1,   1,   1,    61.874,    17.634,     0.000,     0.000,     0.000,     0.000,   1,1
   42,'1 ',1,   1,   1,     1.710,     0.487,     0.000,     0.000,     0.000,     0.000,   1,1
   42,'2 ',1,   1,   1,    15.296,     4.359,     0.000,     0.000,     0.000,     0.000,   1,1
   43,'1 ',1,   1,   1,     3.094,     0.882,     0.000,     0.000,     0.000,     0.000,   1,1
   44,'1 ',1,   1,   1,     1.522,     0.434,     0.000,     0.000,     0.000,     0.000,   1,1
   44,'2 ',1,   1,   1,     5.124,     1.460,     0.000,     0.000,     0.000,     0.000,   1,1
   46,'1 ',1,   1,   1,     8.678,     2.473,     0.000,     0.000,     0.000,     0.000,   1,1
   47,'1 ',1,   1,   1,     2.474,     0.705,     0.000,     0.000,     0.000,     0.000,   1,1
   48,'1 ',1,   1,   1,     2.866,     0.817,     0.000,     0.000,     0.000,     0.000,   1,1
   54,'1 ',1,   1,   1,     0.714,     0.203,     0.000,     0.000,     0.000,     0.000,   1,1
   54,'2 ',1,   1,   1,     3.552,     1.012,     0.000,     0.000,     0.000,     0.000,   1,1
   56,'1 ',1,   1,   1,     1.032,     0.294,     0.000,     0.000,     0.000,     0.000,   1,1
   56,'2 ',1,   1,   1,     0.758,     0.216,     0.000,     0.000,     0.000,     0.000,   1,1
   57,'1 ',1,   1,   1,     4.516,     1.287,     0.000,     0.000,     0.000,     0.000,   1,1
   58,'1 ',1,   1,   1,     1.366,     0.389,     0.000,     0.000,     0.000,     0.000,   1,1
   58,'2 ',1,   1,   1,     1.904,     0.543,     0.000,     0.000,     0.000,     0.000,   1,1
   58,'3 ',1,   1,   1,     2.522,     0.719,     0.000,     0.000,     0.000,     0.000,   1,1
   59,'1 ',1,   1,   1,     1.440,     0.410,     0.000,     0.000,     0.000,     0.000,   1,1
   59,'2 ',1,   1,   1,     5.576,     1.589,     0.000,     0.000,     0.000,     0.000,   1,1
   60,'1 ',1,   1,   1,     3.474,     0.990,     0.000,     0.000,     0.000,     0.000,   1,1
   60,'2 ',1,   1,   1,     2.154,     0.614,     0.000,     0.000,     0.000,     0.000,   1,1
   61,'1 ',1,   1,   1,    28.142,     8.020,     0.000,     0.000,     0.000,     0.000,   1,1
   62,'1 ',1,   1,   1,    13.688,     3.901,     0.000,     0.000,     0.000,     0.000,   1,1
   62,'2 ',1,   1,   1,    20.604,     5.872,     0.000,     0.000,     0.000,     0.000,   1,1
   63,'1 ',1,   1,   1,     5.322,     1.517,     0.000,     0.000,     0.000,     0.000,   1,1
   63,'2 ',1,   1,   1,     3.522,     1.004,     0.000,     0.000,     0.000,     0.000,   1,1
   63,'3 ',1,   1,   1,     3.942,     1.123,     0.000,     0.000,     0.000,     0.000,   1,1
   74,'1 ',1,   1,   1,    29.514,     8.411,     0.000,     0.000,     0.000,     0.000,   1,1
   75,'1 ',1,   1,   1,     5.336,     1.521,     0.000,     0.000,     0.000,     0.000,   1,1
   80,'1 ',1,   1,   1,     0.956,     0.272,     0.000,     0.000,     0.000,     0.000,   1,1
   80,'2 ',1,   1,   1,     1.426,     0.406,     0.000,     0.000,     0.000,     0.000,   1,1
   82,'1 ',1,   1,   1,     8.642,     2.463,     0.000,     0.000,     0.000,     0.000,   1,1
   82,'2 ',1,   1,   1,     3.314,     0.944,     0.000,     0.000,     0.000,     0.000,   1,1
   83,'1 ',1,   1,   1,     1.226,     0.349,     0.000,     0.000,     0.000,     0.000,   1,1
   83,'2 ',1,   1,   1,     3.068,     0.874,     0.000,     0.000,     0.000,     0.000,   1,1
   84,'1 ',1,   1,   1,     5.564,     1.586,     0.000,     0.000,     0.000,     0.000,   1,1
   85,'1 ',1,   1,   1,     7.744,     2.207,     0.000,     0.000,     0.000,     0.000,   1,1
   86,'1 ',1,   1,   1,    12.232,     3.486,     0.000,     0.000,     0.000,     0.000,   1,1
   88,'1 ',1,   1,   1,    79.662,    22.704,     0.000,     0.000,     0.000,     0.000,   1,1
   89,'1 ',1,   1,   1,    11.742,     3.346,     0.000,     0.000,     0.000,     0.000,   1,1
   89,'2 ',1,   1,   1,     3.126,     0.891,     0.000,     0.000,     0.000,     0.000,   1,1
   89,'3 ',1,   1,   1,     3.026,     0.862,     0.000,     0.000,     0.000,     0.000,   1,1
   89,'4 ',1,   1,   1,    68.150,    19.423,     0.000,     0.000,     0.000,     0.000,   1,1
   93,'1 ',1,   1,   1,     3.368,     0.960,     0.000,     0.000,     0.000,     0.000,   1,1
   93,'2 ',1,   1,   1,     1.538,     0.438,     0.000,     0.000,     0.000,     0.000,   1,1
   95,'1 ',1,   1,   1,     2.026,     0.577,     0.000,     0.000,     0.000,     0.000,   1,1
   95,'2 ',1,   1,   1,     1.000,     0.285,     0.000,     0.000,     0.000,     0.000,   1,1
   95,'3 ',1,   1,   1,     1.080,     0.308,     0.000,     0.000,     0.000,     0.000,   1,1
   96,'1 ',1,   1,   1,     4.048,     1.154,     0.000,     0.000,     0.000,     0.000,   1,1
   97,'1 ',1,   1,   1,     1.248,     0.356,     0.000,     0.000,     0.000,     0.000,   1,1
   97,'2 ',1,   1,   1,     1.068,     0.304,     0.000,     0.000,     0.000,     0.000,   1,1
   97,'3 ',1,   1,   1,     8.552,     2.437,     0.000,     0.000,     0.000,     0.000,   1,1
   99,'1 ',1,   1,   1,    18.042,     5.142,     0.000,     0.000,     0.000,     0.000,   1,1
  100,'1 ',1,   1,   1,    60.348,    17.199,     0.000,     0.000,     0.000,     0.000,   1,1
  101,'1 ',1,   1,   1,     0.770,     0.219,     0.000,     0.000,     0.000,     0.000,   1,1
  106,'1 ',1,   1,   1,     2.818,     0.803,     0.000,     0.000,     0.000,     0.000,   1,1
  107,'1 ',1,   1,   1,    71.962,    20.509,     0.000,     0.000,     0.000,     0.000,   1,1
  108,'1 ',1,   1,   1,     0.786,     0.224,     0.000,     0.000,     0.000,     0.000,   1,1
  108,'2 ',1,   1,   1,     6.664,     1.899,     0.000,     0.000,     0.000,     0.000,   1,1
  108,'3 ',1,   1,   1,     6.518,     1.858,     0.000,     0.000,     0.000,     0.000,   1,1
  109,'1 ',1,   1,   1,     2.528,     0.720,     0.000,     0.000,     0.000,     0.000,   1,1
  109,'2 ',1,   1,   1,     5.734,     1.634,     0.000,     0.000,     0.000,     0.000,   1,1
  110,'1 ',1,   1,   1,    16.102,     4.589,     0.000,     0.000,     0.000,     0.000,   1,1
  111,'1 ',1,   1,   1,    14.228,     4.055,     0.000,     0.000,     0.000,     0.000,   1,1
  117,'1 ',1,   1,   1,    50.536,    14.403,     0.000,     0.000,     0.000,     0.000,   1,1
  118,'1 ',1,   1,   1,     5.838,     1.664,     0.000,     0.000,     0.000,     0.000,   1,1
  119,'1 ',1,   1,   1,     1.292,     0.368,     0.000,     0.000,     0.000,     0.000,   1,1
  119,'2 ',1,   1,   1,    24.740,     7.051,     0.000,     0.000,     0.000,     0.000,   1,1
  120,'1 ',1,   1,   1,     2.880,     0.821,     0.000,     0.000,     0.000,     0.000,   1,1
  122,'1 ',1,   1,   1,     0.840,     0.239,     0.000,     0.000,     0.000,     0.000,   1,1
  122,'2 ',1,   1,   1,     0.266,     0.076,     0.000,     0.000,     0.000,     0.000,   1,1
  122,'3 ',1,   1,   1,    20.030,     5.709,     0.000,     0.000,     0.000,     0.000,   1,1
  129,'1 ',1,   1,   1,   105.758,    30.141,     0.000,     0.000,     0.000,     0.000,   1,1
  130,'1 ',1,   1,   1,     6.024,     1.717,     0.000,     0.000,     0.000,     0.000,   1,1
  131,'1 ',1,   1,   1,    44.864,    12.786,     0.000,     0.000,     0.000,     0.000,   1,1
  132,'1 ',1,   1,   1,     2.248,     0.641,     0.000,     0.000,     0.000,     0.000,   1,1
  132,'2 ',1,   1,   1,     2.288,     0.652,     0.000,     0.000,     0.000,     0.000,   1,1
  132,'3 ',1,   1,   1,    35.442,    10.101,     0.000,     0.000,     0.000,     0.000,   1,1
  137,'1 ',1,   1,   1,     1.858,     0.530,     0.000,     0.000,     0.000,     0.000,   1,1
  138,'1 ',1,   1,   1,     3.292,     0.938,     0.000,     0.000,     0.000,     0.000,   1,1
  139,'1 ',1,   1,   1,     8.424,     2.401,     0.000,     0.000,     0.000,     0.000,   1,1
  139,'2 ',1,   1,   1,     1.720,     0.490,     0.000,     0.000,     0.000,     0.000,   1,1
  140,'1 ',1,   1,   1,    12.176,     3.470,     0.000,     0.000,     0.000,     0.000,   1,1
  141,'1 ',1,   1,   1,     2.110,     0.601,     0.000,     0.000,     0.000,     0.000,   1,1
  142,'1 ',1,   1,   1,    55.256,    15.748,     0.000,     0.000,     0.000,     0.000,   1,1
  143,'1 ',1,   1,   1,    43.216,    12.317,     0.000,     0.000,     0.000,     0.000,   1,1
  144,'1 ',1,   1,   1,    13.426,     3.826,     0.000,     0.000,     0.000,     0.000,   1,1
  145,'1 ',1,   1,   1,     2.426,     0.691,     0.000,     0.000,     0.000,     0.000,   1,1
  145,'2 ',1,   1,   1,    25.898,     7.381,     0.000,     0.000,     0.000,     0.000,   1,1
  148,'1 ',1,   1,   1,    47.488,    13.534,     0.000,     0.000,     0.000,     0.000,   1,1
  157,'1 ',1,   1,   1,    21.882,     6.236,     0.000,     0.000,     0.000,     0.000,   1,1
  158,'1 ',1,   1,   1,    14.362,     4.093,     0.000,     0.000,     0.000,     0.000,   1,1
  159,'1 ',1,   1,   1,     2.224,     0.634,     0.000,     0.000,     0.000,     0.000,   1,1
  162,'1 ',1,   1,   1,     2.146,     0.612,     0.000,     0.000,     0.000,     0.000,   1,1
  163,'1 ',1,   1,   1,    73.928,    21.069,     0.000,     0.000,     0.000,     0.000,   1,1
  171,'1 ',1,   1,   1,     6.526,     1.860,     0.000,     0.000,     0.000,     0.000,   1,1
  171,'2 ',1,   1,   1,     5.968,     1.701,     0.000,     0.000,     0.000,     0.000,   1,1
  172,'1 ',1,   1,   1,     1.740,     0.496,     0.000,     0.000,     0.000,     0.000,   1,1
  172,'2 ',1,   1,   1,     3.684,     1.050,     0.000,     0.000,     0.000,     0.000,   1,1
  172,'3 ',1,   1,   1,     3.254,     0.927,     0.000,     0.000,     0.000,     0.000,   1,1
  173,'1 ',1,   1,   1,     1.628,     0.464,     0.000,     0.000,     0.000,     0.000,   1,1
  173,'2 ',1,   1,   1,    12.432,     3.543,     0.000,     0.000,     0.000,     0.000,   1,1
  174,'1 ',1,   1,   1,     2.488,     0.709,     0.000,     0.000,     0.000,     0.000,   1,1
  174,'2 ',1,   1,   1,     1.978,     0.564,     0.000,     0.000,     0.000,     0.000,   1,1
  175,'1 ',1,   1,   1,     3.430,     0.978,     0.000,     0.000,     0.000,     0.000,   1,1
  175,'2 ',1,   1,   1,     8.366,     2.384,     0.000,     0.000,     0.000,     0.000,   1,1
  176,'1 ',1,   1,   1,    30.694,     8.748,     0.000,     0.000,     0.000,     0.000,   1,1
  177,'1 ',1,   1,   1,     1.924,     0.548,     0.000,     0.000,     0.000,     0.000,   1,1
  177,'2 ',1,   1,   1,     4.192,     1.195,     0.000,     0.000,     0.000,     0.000,   1,1
  177,'3 ',1,   1,   1,     9.338,     2.661,     0.000,     0.000,     0.000,     0.000,   1,1
  179,'1 ',1,   1,   1,    38.104,    10.860,     0.000,     0.000,     0.000,     0.000,   1,1
  180,'1 ',1,   1,   1,    12.500,     3.562,     0.000,     0.000,     0.000,     0.000,   1,1
  181,'1 ',1,   1,   1,     2.304,     0.657,     0.000,     0.000,     0.000,     0.000,   1,1
  181,'2 ',1,   1,   1,    74.562,    21.250,     0.000,     0.000,     0.000,     0.000,   1,1
  184,'1 ',1,   1,   1,     0.872,     0.249,     0.000,     0.000,     0.000,     0.000,   1,1
  184,'2 ',1,   1,   1,     1.520,     0.433,     0.000,     0.000,     0.000,     0.000,   1,1
  184,'3 ',1,   1,   1,    14.866,     4.237,     0.000,     0.000,     0.000,     0.000,   1,1
  185,'1 ',1,   1,   1,     3.064,     0.873,     0.000,     0.000,     0.000,     0.000,   1,1
  185,'2 ',1,   1,   1,     1.824,     0.520,     0.000,     0.000,     0.000,     0.000,   1,1
  185,'3 ',1,   1,   1,    12.532,     3.572,     0.000,     0.000,     0.000,     0.000,   1,1
  186,'1 ',1,   1,   1,     3.120,     0.889,     0.000,     0.000,     0.000,     0.000,   1,1
  190,'1 ',1,   1,   1,    26.412,     7.527,     0.000,     0.000,     0.000,     0.000,   1,1
  191,'1 ',1,   1,   1,     1.182,     0.337,     0.000,     0.000,     0.000,     0.000,   1,1
  191,'2 ',1,   1,   1,     4.144,     1.181,     0.000,     0.000,     0.000,     0.000,   1,1
  191,'3 ',1,   1,   1,     0.522,     0.149,     0.000,     0.000,     0.000,     0.000,   1,1
  191,'4 ',1,   1,   1,     5.818,     1.658,     0.000,     0.000,     0.000,     0.000,   1,1
  192,'1 ',1,   1,   1,    72.210,    20.580,     0.000,     0.000,     0.000,     0.000,   1,1
  193,'1 ',1,   1,   1,    32.606,     9.293,     0.000,     0.000,     0.000,     0.000,   1,1
  194,'1 ',1,   1,   1,    60.666,    17.290,     0.000,     0.000,     0.000,     0.000,   1,1
  198,'1 ',1,   1,   1,     7.968,     2.271,     0.000,     0.000,     0.000,     0.000,   1,1
  199,'1 ',1,   1,   1,     3.532,     1.007,     0.000,     0.000,     0.000,     0.000,   1,1
  199,'2 ',1,   1,   1,     3.162,     0.901,     0.000,     0.000,     0.000,     0.000,   1,1
  200,'1 ',1,   1,   1,     1.136,     0.324,     0.000,     0.000,     0.000,     0.000,   1,1
  200,'2 ',1,   1,   1,     1.524,     0.434,     0.000,     0.000,     0.000,     0.000,   1,1
  200,'3 ',1,   1,   1,    12.308,     3.508,     0.000,     0.000,     0.000,     0.000,   1,1
0 / END OF LOAD DATA, BEGIN FIXED SHUNT DATA
0 / END OF FIXED SHUNT DATA, BEGIN GENERATOR DATA
   49,'1 ',     4.530,     2.110,     2.110,    -0.550,1.04000,    0,     5.440,   0.00000,   1.00000,   0.00000,   0.00000,1.00000,1,  100.0,     4.530,     1.360,   1,1.0000,   0,1.0000,   0,1.0000,   0,1.0000,0, 1.0000
   50,'1 ',     4.530,     2.110,     2.110,    -0.550,1.04000,    0,     5.440,   0.00000,   1.00000,   0.00000,   0.00000,1.00000,1,  100.0,     4.530,     1.360,   1,1.0000,   0,1.0000,   0,1.0000,   0,1.0000,0, 1.0000
   51,'1 ',     4.530,     2.110,     2.110,    -0.550,1.04000,    0,     5.440,   0.00000,   1.00000,   0.00000,   0.00000,1.00000,1,  100.0,     4.530,     1.360,   1,1.0000,   0,1.0000,   0,1.0000,   0,1.0000,0, 1.0000
   52,'1 ',     4.530,     2.110,     2.110,    -0.550,1.04000,    0,     5.440,   0.00000,   1.00000,   0.00000,   0.00000,1.00000,1,  100.0,     4.530,     1.360,   1,1.0000,   0,1.0000,   0,1.0000,   0,1.0000,0, 1.0000
   53,'1 ',     9.070,     3.407,     4.230,    -1.110,1.04000,    0,    10.880,   0.00000,   1.00000,   0.00000,   0.00000,1.00000,1,  100.0,     9.070,     2.720,   1,1.0000,   0,1.0000,   0,1.0000,   0,1.0000,0, 1.0000
   65,'1 ',    60.660,    12.124,    32.040,   -21.660,1.04000,    0,   180.480,   0.00000,   1.00000,   0.00000,   0.00000,1.00000,1,  100.0,   150.400,    45.120,   1,1.0000,   0,1.0000,   0,1.0000,   0,1.0000,1, 1.0000
   67,'1 ',     4.700,     2.190,     2.190,    -0.570,1.04000,    0,     5.640,   0.00000,   1.00000,   0.00000,   0.00000,1.00000,1,  100.0,     4.700,     1.410,   1,1.0000,   0,1.0000,   0,1.0000,   0,1.0000,0, 1.0000
   68,'1 ',    27.920,     1.885,    13.010,    -3.410,1.04000,    0,    33.500,   0.00000,   1.00000,   0.00000,   0.00000,1.00000,1,  100.0,    27.920,     8.380,   1,1.0000,   0,1.0000,   0,1.0000,   0,1.0000,0, 1.0000
   69,'1 ',    27.920,     3.659,    13.010,    -3.410,1.04000,    0,    33.500,   0.00000,   1.00000,   0.00000,   0.00000,1.00000,1,  100.0,    27.920,     8.380,   1,1.0000,   0,1.0000,   0,1.0000,   0,1.0000,0, 1.0000
   70,'1 ',    27.920,     1.952,    13.010,    -3.410,1.04000,    0,    33.500,   0.00000,   1.00000,   0.00000,   0.00000,1.00000,1,  100.0,    27.920,     8.380,   1,1.0000,   0,1.0000,   0,1.0000,   0,1.0000,0, 1.0000
   71,'1 ',    27.920,     4.460,    13.010,    -3.410,1.04000,    0,    33.500,   0.00000,   1.00000,   0.00000,   0.00000,1.00000,1,  100.0,    27.920,     8.380,   1,1.0000,   0,1.0000,   0,1.0000,   0,1.0000,0, 1.0000
   72,'1 ',    27.920,     4.822,    13.010,    -3.410,1.04000,    0,    33.500,   0.00000,   1.00000,   0.00000,   0.00000,1.00000,1,  100.0,    27.920,     8.380,   1,1.0000,   0,1.0000,   0,1.0000,   0,1.0000,0, 1.0000
   73,'1 ',    27.920,     2.206,    13.010,    -3.410,1.04000,    0,    33.500,   0.00000,   1.00000,   0.00000,   0.00000,1.00000,1,  100.0,    27.920,     8.380,   1,1.0000,   0,1.0000,   0,1.0000,   0,1.0000,0, 1.0000
   76,'1 ',     1.200,     2.040,     2.040,    -0.440,1.04000,    0,     4.800,   0.00000,   1.00000,   0.00000,   0.00000,1.00000,1,  100.0,     4.000,     1.200,   1,1.0000,   0,1.0000,   0,1.0000,   0,1.0000,0, 1.0000
   77,'1 ',     0.720,     1.188,     1.220,    -0.270,1.04000,    0,     2.880,   0.00000,   1.00000,   0.00000,   0.00000,1.00000,1,  100.0,     2.400,     0.720,   1,1.0000,   0,1.0000,   0,1.0000,   0,1.0000,0, 1.0000
   78,'1 ',     5.400,     4.176,     9.160,    -2.000,1.04000,    0,    21.600,   0.00000,   1.00000,   0.00000,   0.00000,1.00000,0,  100.0,    18.000,     5.400,   1,1.0000,   0,1.0000,   0,1.0000,   0,1.0000,0, 1.0000
   79,'1 ',     5.400,     3.480,     9.160,    -2.000,1.04000,    0,    21.600,   0.00000,   1.00000,   0.00000,   0.00000,1.00000,0,  100.0,    18.000,     5.400,   1,1.0000,   0,1.0000,   0,1.0000,   0,1.0000,0, 1.0000
   90,'1 ',     0.960,     1.112,     1.630,    -0.360,1.04000,    0,     3.840,   0.00000,   1.00000,   0.00000,   0.00000,1.00000,1,  100.0,     3.200,     0.960,   1,1.0000,   0,1.0000,   0,1.0000,   0,1.0000,0, 1.0000
   91,'1 ',     1.500,     2.550,     2.550,    -0.550,1.04000,    0,     6.000,   0.00000,   1.00000,   0.00000,   0.00000,1.00000,1,  100.0,     5.000,     1.500,   1,1.0000,   0,1.0000,   0,1.0000,   0,1.0000,0, 1.0000
   92,'1 ',     1.890,     3.210,     3.210,    -0.700,1.04000,    0,     7.560,   0.00000,   1.00000,   0.00000,   0.00000,1.00000,0,  100.0,     6.300,     1.890,   1,1.0000,   0,1.0000,   0,1.0000,   0,1.0000,0, 1.0000
   94,'1 ',    18.000,     2.005,     8.390,    -2.200,1.04000,    0,    21.600,   0.00000,   1.00000,   0.00000,   0.00000,1.00000,1,  100.0,    18.000,     5.400,   1,1.0000,   0,1.0000,   0,1.0000,   0,1.0000,0, 1.0000
  104,'1 ',    52.000,    15.937,    21.090,   -14.260,1.04000,    0,   118.800,   0.00000,   1.00000,   0.00000,   0.00000,1.00000,1,  100.0,    99.000,    29.700,   1,1.0000,   0,1.0000,   0,1.0000,   0,1.0000,1, 1.0000
  105,'1 ',    63.000,    23.817,    42.170,   -28.510,1.04000,    0,   237.600,   0.00000,   1.00000,   0.00000,   0.00000,1.00000,1,  100.0,   198.000,    59.400,   1,1.0000,   0,1.0000,   0,1.0000,   0,1.0000,1, 1.0000
  114,'1 ',     1.080,     0.360,     0.360,    -0.240,1.04000,    0,     2.040,   0.00000,   1.00000,   0.00000,   0.00000,1.00000,1,  100.0,     1.700,     0.510,   1,1.0000,   0,1.0000,   0,1.0000,   0,1.0000,1, 1.0000
  115,'1 ',    75.120,    31.698,    31.950,   -21.600,1.04000,    0,   180.000,   0.00000,   1.00000,   0.00000,   0.00000,1.00000,1,  100.0,   150.000,    45.000,   1,1.0000,   0,1.0000,   0,1.0000,   0,1.0000,1, 1.0000
  125,'1 ',   130.050,    20.387,    60.600,   -15.870,1.04000,    0,   156.060,   0.00000,   1.00000,   0.00000,   0.00000,1.00000,1,  100.0,   130.050,    39.020,   1,1.0000,   0,1.0000,   0,1.0000,   0,1.0000,0, 1.0000
  126,'1 ',   130.050,    30.347,    60.600,   -15.870,1.04000,    0,   156.060,   0.00000,   1.00000,   0.00000,   0.00000,1.00000,1,  100.0,   130.050,    39.020,   1,1.0000,   0,1.0000,   0,1.0000,   0,1.0000,0, 1.0000
  127,'1 ',   130.050,    56.811,    60.600,   -15.870,1.04000,    0,   156.060,   0.00000,   1.00000,   0.00000,   0.00000,1.00000,1,  100.0,   130.050,    39.020,   1,1.0000,   0,1.0000,   0,1.0000,   0,1.0000,0, 1.0000
  135,'1 ',   216.767,    53.470,   208.020,   -54.460,1.04000,    0,   535.680,   0.00000,   1.00000,   0.00000,   0.00000,1.00000,1,  100.0,   446.400,   133.920,   1,1.0000,   0,1.0000,   0,1.0000,   0,1.0000,0, 1.0000
  136,'1 ',   196.416,    61.492,   208.020,   -54.460,1.04000,    0,   535.680,   0.00000,   1.00000,   0.00000,   0.00000,1.00000,1,  100.0,   446.400,   133.920,   1,1.0000,   0,1.0000,   0,1.0000,   0,1.0000,0, 1.0000
  147,'1 ',    42.000,    21.410,    21.410,   -14.470,1.04000,    0,   120.600,   0.00000,   1.00000,   0.00000,   0.00000,1.00000,1,  100.0,   100.500,    30.150,   1,1.0000,   0,1.0000,   0,1.0000,   0,1.0000,1, 1.0000
  151,'1 ',     5.400,     1.943,     2.520,    -0.660,1.04000,    0,     6.480,   0.00000,   1.00000,   0.00000,   0.00000,1.00000,1,  100.0,     5.400,     1.620,   1,1.0000,   0,1.0000,   0,1.0000,   0,1.0000,0, 1.0000
  152,'1 ',    77.220,    11.658,    35.990,    -9.420,1.04000,    0,    92.670,   0.00000,   1.00000,   0.00000,   0.00000,1.00000,1,  100.0,    77.220,    23.170,   1,1.0000,   0,1.0000,   0,1.0000,   0,1.0000,0, 1.0000
  153,'1 ',    77.220,     9.801,    35.990,    -9.420,1.04000,    0,    92.670,   0.00000,   1.00000,   0.00000,   0.00000,1.00000,1,  100.0,    77.220,    23.170,   1,1.0000,   0,1.0000,   0,1.0000,   0,1.0000,0, 1.0000
  154,'1 ',    77.220,    13.472,    35.990,    -9.420,1.04000,    0,    92.670,   0.00000,   1.00000,   0.00000,   0.00000,1.00000,1,  100.0,    77.220,    23.170,   1,1.0000,   0,1.0000,   0,1.0000,   0,1.0000,0, 1.0000
  155,'1 ',    77.220,    13.715,    35.990,    -9.420,1.04000,    0,    92.670,   0.00000,   1.00000,   0.00000,   0.00000,1.00000,1,  100.0,    77.220,    23.170,   1,1.0000,   0,1.0000,   0,1.0000,   0,1.0000,0, 1.0000
  161,'1 ',    41.580,    36.305,    70.550,   -15.380,1.04000,    0,   166.320,   0.00000,   1.00000,   0.00000,   0.00000,1.00000,0,  100.0,   138.600,    41.580,   1,1.0000,   0,1.0000,   0,1.0000,   0,1.0000,0, 1.0000
  164,'1 ',     3.600,     6.110,     6.110,    -1.330,1.04000,    0,    14.400,   0.00000,   1.00000,   0.00000,   0.00000,1.00000,0,  100.0,    12.000,     3.600,   1,1.0000,   0,1.0000,   0,1.0000,   0,1.0000,0, 1.0000
  165,'1 ',     7.800,    13.230,    13.230,    -2.890,1.04000,    0,    31.200,   0.00000,   1.00000,   0.00000,   0.00000,1.00000,0,  100.0,    26.000,     7.800,   1,1.0000,   0,1.0000,   0,1.0000,   0,1.0000,0, 1.0000
  166,'1 ',     2.820,     4.780,     4.780,    -1.040,1.04000,    0,    11.280,   0.00000,   1.00000,   0.00000,   0.00000,1.00000,0,  100.0,     9.400,     2.820,   1,1.0000,   0,1.0000,   0,1.0000,   0,1.0000,0, 1.0000
  167,'1 ',     2.820,     4.780,     4.780,    -1.040,1.04000,    0,    11.280,   0.00000,   1.00000,   0.00000,   0.00000,1.00000,1,  100.0,     9.400,     2.820,   1,1.0000,   0,1.0000,   0,1.0000,   0,1.0000,0, 1.0000
  168,'1 ',     2.820,     4.780,     4.780,    -1.040,1.04000,    0,    11.280,   0.00000,   1.00000,   0.00000,   0.00000,1.00000,0,  100.0,     9.400,     2.820,   1,1.0000,   0,1.0000,   0,1.0000,   0,1.0000,0, 1.0000
  169,'1 ',     2.820,     4.780,     4.780,    -1.040,1.04000,    0,    11.280,   0.00000,   1.00000,   0.00000,   0.00000,1.00000,0,  100.0,     9.400,     2.820,   1,1.0000,   0,1.0000,   0,1.0000,   0,1.0000,0, 1.0000
  170,'1 ',     2.820,     4.780,     4.780,    -1.040,1.04000,    0,    11.280,   0.00000,   1.00000,   0.00000,   0.00000,1.00000,1,  100.0,     9.400,     2.820,   1,1.0000,   0,1.0000,   0,1.0000,   0,1.0000,0, 1.0000
  182,'1 ',    17.500,     8.160,     8.160,    -2.140,1.04000,    0,    21.000,   0.00000,   1.00000,   0.00000,   0.00000,1.00000,1,  100.0,    17.500,     5.250,   1,1.0000,   0,1.0000,   0,1.0000,   0,1.0000,0, 1.0000
  183,'1 ',    26.600,    12.400,    12.400,    -3.250,1.04000,    0,    31.920,   0.00000,   1.00000,   0.00000,   0.00000,1.00000,1,  100.0,    26.600,     7.980,   1,1.0000,   0,1.0000,   0,1.0000,   0,1.0000,0, 1.0000
  189,'1 ',   569.126,    56.232,   209.450,   -46.670,1.04000,    0,   682.980,   0.00000,   1.00000,   0.00000,   0.00000,1.00000,1,  100.0,   569.150,   170.750,   1,1.0000,   0,1.0000,   0,1.0000,   0,1.0000,0, 1.0000
  196,'1 ',    20.250,    18.778,    34.360,    -7.490,1.04000,    0,    81.000,   0.00000,   1.00000,   0.00000,   0.00000,1.00000,0,  100.0,    67.500,    20.250,   1,1.0000,   0,1.0000,   0,1.0000,   0,1.0000,0, 1.0000
  197,'1 ',    20.250,    13.388,    34.360,    -7.490,1.04000,    0,    81.000,   0.00000,   1.00000,   0.00000,   0.00000,1.00000,0,  100.0,    67.500,    20.250,   1,1.0000,   0,1.0000,   0,1.0000,   0,1.0000,0, 1.0000
0 / END OF GENERATOR DATA, BEGIN BRANCH DATA
     2,     1,'1 ',6.73057E-4,3.33871E-3,0.00000E0, 100.00,   0.00,   0.00,  0.00000,  0.00000,  0.00000,  0.00000,1,1,   0.0,   1,1.0000,   0,1.0000,   0,1.0000,   0,1.0000
     1,   119,'1 ',1.85418E-2,1.19758E-1,2.28477E-2, 221.10,   0.00,   0.00,  0.00000,  0.00000,  0.00000,  0.00000,1,1,   0.0,   1,1.0000,   0,1.0000,   0,1.0000,   0,1.0000
   124,     1,'1 ',5.61527E-3,3.62680E-2,6.91926E-3, 221.10,   0.00,   0.00,  0.00000,  0.00000,  0.00000,  0.00000,1,1,   0.0,   1,1.0000,   0,1.0000,   0,1.0000,   0,1.0000
   193,     1,'1 ',4.25792E-3,2.75012E-2,5.24671E-3, 221.10,   0.00,   0.00,  0.00000,  0.00000,  0.00000,  0.00000,1,1,   0.0,   1,1.0000,   0,1.0000,   0,1.0000,   0,1.0000
     4,     3,'1 ',5.72913E-4,3.30300E-3,0.00000E0, 100.00,   0.00,   0.00,  0.00000,  0.00000,  0.00000,  0.00000,1,1,   0.0,   1,1.0000,   0,1.0000,   0,1.0000,   0,1.0000
    57,     3,'1 ',8.50453E-3,5.80981E-2,9.88457E-3, 221.10,   0.00,   0.00,  0.00000,  0.00000,  0.00000,  0.00000,1,1,   0.0,   1,1.0000,   0,1.0000,   0,1.0000,   0,1.0000
     3,   137,'1 ',5.88885E-3,3.80350E-2,7.25638E-3, 221.10,   0.00,   0.00,  0.00000,  0.00000,  0.00000,  0.00000,1,1,   0.0,   1,1.0000,   0,1.0000,   0,1.0000,   0,1.0000
     6,     5,'1 ',6.93558E-4,3.33744E-3,0.00000E0, 100.00,   0.00,   0.00,  0.00000,  0.00000,  0.00000,  0.00000,1,1,   0.0,   1,1.0000,   0,1.0000,   0,1.0000,   0,1.0000
    48,     5,'1 ',6.24597E-3,4.35129E-2,7.11307E-3, 221.10,   0.00,   0.00,  0.00000,  0.00000,  0.00000,  0.00000,1,1,   0.0,   1,1.0000,   0,1.0000,   0,1.0000,   0,1.0000
     5,    64,'1 ',7.87689E-3,5.48749E-2,8.97041E-3, 221.10,   0.00,   0.00,  0.00000,  0.00000,  0.00000,  0.00000,1,1,   0.0,   1,1.0000,   0,1.0000,   0,1.0000,   0,1.0000
     8,     7,'1 ',6.33898E-4,3.18908E-3,0.00000E0, 100.00,   0.00,   0.00,  0.00000,  0.00000,  0.00000,  0.00000,1,1,   0.0,   1,1.0000,   0,1.0000,   0,1.0000,   0,1.0000
     7,    86,'1 ',3.75602E-3,2.42595E-2,4.62826E-3, 221.10,   0.00,   0.00,  0.00000,  0.00000,  0.00000,  0.00000,1,1,   0.0,   1,1.0000,   0,1.0000,   0,1.0000,   0,1.0000
     7,   101,'1 ',3.59687E-3,2.32315E-2,4.43214E-3, 221.10,   0.00,   0.00,  0.00000,  0.00000,  0.00000,  0.00000,1,1,   0.0,   1,1.0000,   0,1.0000,   0,1.0000,   0,1.0000
     7,   148,'1 ',8.66716E-3,5.59797E-2,1.06799E-2, 221.10,   0.00,   0.00,  0.00000,  0.00000,  0.00000,  0.00000,1,1,   0.0,   1,1.0000,   0,1.0000,   0,1.0000,   0,1.0000
    10,     9,'1 ',5.85063E-4,3.96652E-3,0.00000E0, 100.00,   0.00,   0.00,  0.00000,  0.00000,  0.00000,  0.00000,1,1,   0.0,   1,1.0000,   0,1.0000,   0,1.0000,   0,1.0000
     9,   124,'1 ',8.06902E-3,5.51230E-2,9.37839E-3, 221.10,   0.00,   0.00,  0.00000,  0.00000,  0.00000,  0.00000,1,1,   0.0,   1,1.0000,   0,1.0000,   0,1.0000,   0,1.0000
   131,     9,'1 ',4.13882E-3,2.67319E-2,5.09995E-3, 221.10,   0.00,   0.00,  0.00000,  0.00000,  0.00000,  0.00000,1,1,   0.0,   1,1.0000,   0,1.0000,   0,1.0000,   0,1.0000
     9,   141,'1 ',4.44559E-3,3.09705E-2,5.06275E-3, 221.10,   0.00,   0.00,  0.00000,  0.00000,  0.00000,  0.00000,1,1,   0.0,   1,1.0000,   0,1.0000,   0,1.0000,   0,1.0000
     9,   193,'1 ',3.69525E-3,2.52439E-2,4.29489E-3, 221.10,   0.00,   0.00,  0.00000,  0.00000,  0.00000,  0.00000,1,1,   0.0,   1,1.0000,   0,1.0000,   0,1.0000,   0,1.0000
    12,    11,'1 ',5.33505E-4,3.53278E-3,0.00000E0, 100.00,   0.00,   0.00,  0.00000,  0.00000,  0.00000,  0.00000,1,1,   0.0,   1,1.0000,   0,1.0000,   0,1.0000,   0,1.0000
    13,    11,'1 ',6.19088E-4,3.60638E-3,0.00000E0, 100.00,   0.00,   0.00,  0.00000,  0.00000,  0.00000,  0.00000,1,1,   0.0,   1,1.0000,   0,1.0000,   0,1.0000,   0,1.0000
    11,    15,'1 ',1.04075E-2,6.72204E-2,1.28244E-2, 221.10,   0.00,   0.00,  0.00000,  0.00000,  0.00000,  0.00000,1,1,   0.0,   1,1.0000,   0,1.0000,   0,1.0000,   0,1.0000
    11,    93,'1 ',1.83938E-2,1.28141E-1,2.09473E-2, 221.10,   0.00,   0.00,  0.00000,  0.00000,  0.00000,  0.00000,1,1,   0.0,   1,1.0000,   0,1.0000,   0,1.0000,   0,1.0000
   158,    11,'1 ',8.51933E-3,5.81992E-2,9.90177E-3, 221.10,   0.00,   0.00,  0.00000,  0.00000,  0.00000,  0.00000,1,1,   0.0,   1,1.0000,   0,1.0000,   0,1.0000,   0,1.0000
    14,   121,'1 ',7.01262E-3,5.00985E-2,9.13368E-2, 402.36,   0.00,   0.00,  0.00000,  0.00000,  0.00000,  0.00000,1,1,   0.0,   1,1.0000,   0,1.0000,   0,1.0000,   0,1.0000
    14,   149,'1 ',9.13264E-3,6.52439E-2,1.18949E-1, 402.36,   0.00,   0.00,  0.00000,  0.00000,  0.00000,  0.00000,1,1,   0.0,   1,1.0000,   0,1.0000,   0,1.0000,   0,1.0000
    16,    15,'1 ',5.52965E-4,3.20024E-3,0.00000E0, 100.00,   0.00,   0.00,  0.00000,  0.00000,  0.00000,  0.00000,1,1,   0.0,   1,1.0000,   0,1.0000,   0,1.0000,   0,1.0000
    18,    17,'1 ',5.02930E-4,3.92604E-3,0.00000E0, 100.00,   0.00,   0.00,  0.00000,  0.00000,  0.00000,  0.00000,1,1,   0.0,   1,1.0000,   0,1.0000,   0,1.0000,   0,1.0000
    19,    17,'1 ',5.14285E-4,3.07858E-3,0.00000E0, 100.00,   0.00,   0.00,  0.00000,  0.00000,  0.00000,  0.00000,1,1,   0.0,   1,1.0000,   0,1.0000,   0,1.0000,   0,1.0000
    20,    17,'1 ',6.23304E-4,3.33885E-3,0.00000E0, 100.00,   0.00,   0.00,  0.00000,  0.00000,  0.00000,  0.00000,1,1,   0.0,   1,1.0000,   0,1.0000,   0,1.0000,   0,1.0000
    21,    17,'1 ',6.19771E-4,3.94003E-3,0.00000E0, 100.00,   0.00,   0.00,  0.00000,  0.00000,  0.00000,  0.00000,1,1,   0.0,   1,1.0000,   0,1.0000,   0,1.0000,   0,1.0000
   109,    17,'1 ',9.78939E-3,6.81983E-2,1.11484E-2, 221.10,   0.00,   0.00,  0.00000,  0.00000,  0.00000,  0.00000,1,1,   0.0,   1,1.0000,   0,1.0000,   0,1.0000,   0,1.0000
    17,   120,'1 ',1.03160E-2,7.04727E-2,1.19899E-2, 221.10,   0.00,   0.00,  0.00000,  0.00000,  0.00000,  0.00000,1,1,   0.0,   1,1.0000,   0,1.0000,   0,1.0000,   0,1.0000
    23,    22,'1 ',6.15964E-4,3.22174E-3,0.00000E0, 100.00,   0.00,   0.00,  0.00000,  0.00000,  0.00000,  0.00000,1,1,   0.0,   1,1.0000,   0,1.0000,   0,1.0000,   0,1.0000
    24,    22,'1 ',6.87456E-4,3.06686E-3,0.00000E0, 100.00,   0.00,   0.00,  0.00000,  0.00000,  0.00000,  0.00000,1,1,   0.0,   1,1.0000,   0,1.0000,   0,1.0000,   0,1.0000
    22,    27,'1 ',1.13789E-2,7.34942E-2,1.40213E-2, 221.10,   0.00,   0.00,  0.00000,  0.00000,  0.00000,  0.00000,1,1,   0.0,   1,1.0000,   0,1.0000,   0,1.0000,   0,1.0000
   158,    22,'1 ',1.27015E-2,8.67693E-2,1.47626E-2, 221.10,   0.00,   0.00,  0.00000,  0.00000,  0.00000,  0.00000,1,1,   0.0,   1,1.0000,   0,1.0000,   0,1.0000,   0,1.0000
    26,    25,'1 ',6.10053E-4,3.07070E-3,0.00000E0, 100.00,   0.00,   0.00,  0.00000,  0.00000,  0.00000,  0.00000,1,1,   0.0,   1,1.0000,   0,1.0000,   0,1.0000,   0,1.0000
    25,    64,'1 ',7.64278E-3,5.32439E-2,8.70379E-3, 221.10,   0.00,   0.00,  0.00000,  0.00000,  0.00000,  0.00000,1,1,   0.0,   1,1.0000,   0,1.0000,   0,1.0000,   0,1.0000
   199,    25,'1 ',9.90935E-3,6.40028E-2,1.22105E-2, 221.10,   0.00,   0.00,  0.00000,  0.00000,  0.00000,  0.00000,1,1,   0.0,   1,1.0000,   0,1.0000,   0,1.0000,   0,1.0000
    28,    27,'1 ',5.87363E-4,3.96375E-3,0.00000E0, 100.00,   0.00,   0.00,  0.00000,  0.00000,  0.00000,  0.00000,1,1,   0.0,   1,1.0000,   0,1.0000,   0,1.0000,   0,1.0000
    27,    93,'1 ',2.51719E-2,1.75362E-1,2.86664E-2, 221.10,   0.00,   0.00,  0.00000,  0.00000,  0.00000,  0.00000,1,1,   0.0,   1,1.0000,   0,1.0000,   0,1.0000,   0,1.0000
    27,   158,'1 ',2.04286E-2,1.31945E-1,2.51726E-2, 221.10,   0.00,   0.00,  0.00000,  0.00000,  0.00000,  0.00000,1,1,   0.0,   1,1.0000,   0,1.0000,   0,1.0000,   0,1.0000
    30,    29,'1 ',6.93832E-4,3.13121E-3,0.00000E0, 100.00,   0.00,   0.00,  0.00000,  0.00000,  0.00000,  0.00000,1,1,   0.0,   1,1.0000,   0,1.0000,   0,1.0000,   0,1.0000
   124,    29,'1 ',5.56114E-3,3.87420E-2,6.33316E-3, 221.10,   0.00,   0.00,  0.00000,  0.00000,  0.00000,  0.00000,1,1,   0.0,   1,1.0000,   0,1.0000,   0,1.0000,   0,1.0000
    29,   140,'1 ',7.89540E-3,5.50038E-2,8.99148E-3, 221.10,   0.00,   0.00,  0.00000,  0.00000,  0.00000,  0.00000,1,1,   0.0,   1,1.0000,   0,1.0000,   0,1.0000,   0,1.0000
    32,    31,'1 ',6.66645E-4,3.88361E-3,0.00000E0, 100.00,   0.00,   0.00,  0.00000,  0.00000,  0.00000,  0.00000,1,1,   0.0,   1,1.0000,   0,1.0000,   0,1.0000,   0,1.0000
    33,    31,'1 ',5.27695E-4,3.63861E-3,0.00000E0, 100.00,   0.00,   0.00,  0.00000,  0.00000,  0.00000,  0.00000,1,1,   0.0,   1,1.0000,   0,1.0000,   0,1.0000,   0,1.0000
   177,    31,'1 ',8.40589E-3,5.85602E-2,9.57284E-3, 221.10,   0.00,   0.00,  0.00000,  0.00000,  0.00000,  0.00000,1,1,   0.0,   1,1.0000,   0,1.0000,   0,1.0000,   0,1.0000
   192,    31,'1 ',8.08769E-3,5.52505E-2,9.40009E-3, 221.10,   0.00,   0.00,  0.00000,  0.00000,  0.00000,  0.00000,1,1,   0.0,   1,1.0000,   0,1.0000,   0,1.0000,   0,1.0000
    35,    34,'1 ',5.75392E-4,3.67378E-3,0.00000E0, 100.00,   0.00,   0.00,  0.00000,  0.00000,  0.00000,  0.00000,1,1,   0.0,   1,1.0000,   0,1.0000,   0,1.0000,   0,1.0000
    34,    54,'1 ',6.26790E-3,4.28187E-2,7.28500E-3, 221.10,   0.00,   0.00,  0.00000,  0.00000,  0.00000,  0.00000,1,1,   0.0,   1,1.0000,   0,1.0000,   0,1.0000,   0,1.0000
    34,   137,'1 ',6.91136E-3,4.46393E-2,8.51634E-3, 221.10,   0.00,   0.00,  0.00000,  0.00000,  0.00000,  0.00000,1,1,   0.0,   1,1.0000,   0,1.0000,   0,1.0000,   0,1.0000
    37,    36,'1 ',5.51771E-4,3.32751E-3,0.00000E0, 100.00,   0.00,   0.00,  0.00000,  0.00000,  0.00000,  0.00000,1,1,   0.0,   1,1.0000,   0,1.0000,   0,1.0000,   0,1.0000
    38,    36,'1 ',6.70046E-4,3.51083E-3,0.00000E0, 100.00,   0.00,   0.00,  0.00000,  0.00000,  0.00000,  0.00000,1,1,   0.0,   1,1.0000,   0,1.0000,   0,1.0000,   0,1.0000
    58,    36,'1 ',1.08894E-2,7.43904E-2,1.26565E-2, 221.10,   0.00,   0.00,  0.00000,  0.00000,  0.00000,  0.00000,1,1,   0.0,   1,1.0000,   0,1.0000,   0,1.0000,   0,1.0000
    83,    36,'1 ',9.61543E-3,6.69864E-2,1.09503E-2, 221.10,   0.00,   0.00,  0.00000,  0.00000,  0.00000,  0.00000,1,1,   0.0,   1,1.0000,   0,1.0000,   0,1.0000,   0,1.0000
    40,    39,'1 ',5.05298E-4,3.10299E-3,0.00000E0, 100.00,   0.00,   0.00,  0.00000,  0.00000,  0.00000,  0.00000,1,1,   0.0,   1,1.0000,   0,1.0000,   0,1.0000,   0,1.0000
    39,    85,'1 ',8.70223E-3,6.06246E-2,9.91033E-3, 221.10,   0.00,   0.00,  0.00000,  0.00000,  0.00000,  0.00000,1,1,   0.0,   1,1.0000,   0,1.0000,   0,1.0000,   0,1.0000
   159,    39,'1 ',7.33218E-3,5.10801E-2,8.35008E-3, 221.10,   0.00,   0.00,  0.00000,  0.00000,  0.00000,  0.00000,1,1,   0.0,   1,1.0000,   0,1.0000,   0,1.0000,   0,1.0000
    41,   100,'1 ',4.59470E-3,2.96763E-2,5.66169E-3, 221.10,   0.00,   0.00,  0.00000,  0.00000,  0.00000,  0.00000,1,1,   0.0,   1,1.0000,   0,1.0000,   0,1.0000,   0,1.0000
    41,   163,'1 ',3.16521E-3,2.16229E-2,3.67884E-3, 221.10,   0.00,   0.00,  0.00000,  0.00000,  0.00000,  0.00000,1,1,   0.0,   1,1.0000,   0,1.0000,   0,1.0000,   0,1.0000
    41,   180,'1 ',9.40820E-3,6.07659E-2,1.15930E-2, 221.10,   0.00,   0.00,  0.00000,  0.00000,  0.00000,  0.00000,1,1,   0.0,   1,1.0000,   0,1.0000,   0,1.0000,   0,1.0000
    44,    42,'1 ',1.22561E-2,8.53826E-2,1.39575E-2, 221.10,   0.00,   0.00,  0.00000,  0.00000,  0.00000,  0.00000,1,1,   0.0,   1,1.0000,   0,1.0000,   0,1.0000,   0,1.0000
   181,    42,'1 ',8.00829E-3,5.57902E-2,9.12005E-3, 221.10,   0.00,   0.00,  0.00000,  0.00000,  0.00000,  0.00000,1,1,   0.0,   1,1.0000,   0,1.0000,   0,1.0000,   0,1.0000
    43,    84,'1 ',7.50870E-3,5.12952E-2,8.72715E-3, 221.10,   0.00,   0.00,  0.00000,  0.00000,  0.00000,  0.00000,1,1,   0.0,   1,1.0000,   0,1.0000,   0,1.0000,   0,1.0000
    43,   132,'1 ',1.10524E-2,7.55035E-2,1.28459E-2, 221.10,   0.00,   0.00,  0.00000,  0.00000,  0.00000,  0.00000,1,1,   0.0,   1,1.0000,   0,1.0000,   0,1.0000,   0,1.0000
    44,   200,'1 ',1.48131E-2,1.01195E-1,1.72169E-2, 221.10,   0.00,   0.00,  0.00000,  0.00000,  0.00000,  0.00000,1,1,   0.0,   1,1.0000,   0,1.0000,   0,1.0000,   0,1.0000
    55,    45,'1 ',2.59333E-3,1.85268E-2,3.37771E-2, 402.36,   0.00,   0.00,  0.00000,  0.00000,  0.00000,  0.00000,1,1,   0.0,   1,1.0000,   0,1.0000,   0,1.0000,   0,1.0000
...